LTspice 24.1.9 for Windows
Circuit: C:\Users\prime\Desktop\4Bit_RCA\CMOS_FULL_ADDER.net
Start Time: Mon Sep 15 19:58:19 2025
Ignoring BSIM parameter XL
Ignoring BSIM parameter XW
Ignoring BSIM parameter XL
Ignoring BSIM parameter XW
Ignoring BSIM parameter XL
Ignoring BSIM parameter XW
Ignoring BSIM parameter XL
Ignoring BSIM parameter XW
Ignoring BSIM parameter XL
Ignoring BSIM parameter XW
Ignoring BSIM parameter XL
Ignoring BSIM parameter XW
Ignoring BSIM parameter XL
Ignoring BSIM parameter XW
Ignoring BSIM parameter XL
Ignoring BSIM parameter XW
Ignoring BSIM parameter XL
Ignoring BSIM parameter XW
Ignoring BSIM parameter XL
Ignoring BSIM parameter XW
Ignoring BSIM parameter XL
Ignoring BSIM parameter XW
Ignoring BSIM parameter XL
Ignoring BSIM parameter XW
Ignoring BSIM parameter XL
Ignoring BSIM parameter XW
Ignoring BSIM parameter XL
Ignoring BSIM parameter XW
Ignoring BSIM parameter XL
Ignoring BSIM parameter XW
Ignoring BSIM parameter XL
Ignoring BSIM parameter XW
Ignoring BSIM parameter XL
Ignoring BSIM parameter XW
Ignoring BSIM parameter XL
Ignoring BSIM parameter XW
Ignoring BSIM parameter XL
Ignoring BSIM parameter XW
Ignoring BSIM parameter XL
Ignoring BSIM parameter XW
Ignoring BSIM parameter XL
Ignoring BSIM parameter XW
Ignoring BSIM parameter XL
Ignoring BSIM parameter XW
Ignoring BSIM parameter XL
Ignoring BSIM parameter XW
Ignoring BSIM parameter XL
Ignoring BSIM parameter XW
solver = Normal
Maximum thread count: 8
tnom = 27
temp = 27
method = trap
WARNING: Node x4:nc_01 is floating.
WARNING: Node x5:nc_01 is floating.

Warning: Pd = 0 is less than W.
Warning: Ps = 0 is less than W.
Warning: Pd = 0 is less than W.
Warning: Ps = 0 is less than W.
Warning: Pd = 0 is less than W.
Warning: Ps = 0 is less than W.
Warning: Pd = 0 is less than W.
Warning: Ps = 0 is less than W.
Warning: Pd = 0 is less than W.
Warning: Ps = 0 is less than W.
Warning: Pd = 0 is less than W.
Warning: Ps = 0 is less than W.
Warning: Pd = 0 is less than W.
Warning: Ps = 0 is less than W.
Warning: Pd = 0 is less than W.
Warning: Ps = 0 is less than W.
Warning: Pd = 0 is less than W.
Warning: Ps = 0 is less than W.
Warning: Pd = 0 is less than W.
Warning: Ps = 0 is less than W.
Warning: Pd = 0 is less than W.
Warning: Ps = 0 is less than W.
Warning: Pd = 0 is less than W.
Warning: Ps = 0 is less than W.
Warning: Pd = 0 is less than W.
Warning: Ps = 0 is less than W.
Warning: Pd = 0 is less than W.
Warning: Ps = 0 is less than W.
Warning: Pd = 0 is less than W.
Warning: Ps = 0 is less than W.
Warning: Pd = 0 is less than W.
Warning: Ps = 0 is less than W.
Warning: Pd = 0 is less than W.
Warning: Ps = 0 is less than W.
Warning: Pd = 0 is less than W.
Warning: Ps = 0 is less than W.
Warning: Pd = 0 is less than W.
Warning: Ps = 0 is less than W.
Warning: Pd = 0 is less than W.
Warning: Ps = 0 is less than W.
Warning: Pd = 0 is less than W.
Warning: Ps = 0 is less than W.
Warning: Pd = 0 is less than W.
Warning: Ps = 0 is less than W.
Warning: Pd = 0 is less than W.
Warning: Ps = 0 is less than W.
Warning: Pd = 0 is less than W.
Warning: Ps = 0 is less than W.
Direct Newton iteration for .op point succeeded.
Total elapsed time: 0.454 seconds.

Files loaded:
C:\Users\prime\Desktop\4Bit_RCA\CMOS_FULL_ADDER.net
C:\Users\prime\AppData\Local\LTspice\lib\cmp\standard.mos
C:\Users\prime\Desktop\4Bit_RCA\sim.meas
C:\Users\prime\Desktop\4Bit_RCA\tsmc18dN.m
C:\Users\prime\Desktop\4Bit_RCA\tsmc18dP.m

vin50: V(a)=0.25 AT 5.99995e-08
vout50: V(sum)=0.25 AT 1.02208666748e-07
tphl: 'vout50-vin50'=4.22091667479e-08
vin51: V(a)=0.25 AT 3.99995e-08
vout51: V(sum)=0.25 AT 4.31542880598e-08
tplh: 'vout51-vin51'=3.15478805981e-09
t10r: V(sum)=0.05 AT 4.20194752443e-08
t90r: V(sum)=0.45 AT 4.42956194936e-08
tr: 't90r-t10r'=2.27614424928e-09
t90f: V(sum)=0.45 AT 7.99999241681e-08
t10f: V(sum)=0.05 AT 8.56408239739e-08
tf: 't10f-t90f'=5.64089980582e-09
curr_inte: INTEG(I(Vdd))=-5.08939276648e-14 FROM 0 TO 2e-07
power: 'curr_inte*0.5'=-2.54469638324e-14
avg_power: 'power/200n'=-1.27234819162e-07
